======================================================================
Migration Report
======================================================================
Input file: test_configs/cisco_nxos_test2.txt
Output file: test_outputs\cisco_nxos_test2_sonic.txt
Hostname: Access-Switch-01

Statistics:
----------------------------------------------------------------------
VLANs: 4
Physical Interfaces: 8
Port-Channels: 1
Loopback Interfaces: 0
Static Routes: 1
BGP Configured: True
MCLAG Configured: False

Unsupported Features:
==================================================

  - version 9.3(5) (line 4) - Configuration not translated; configure manually on SONiC if needed.

  - feature telnet (line 7) - Configuration not translated; configure manually on SONiC if needed.

  - feature ssh (line 8) - Configuration not translated; configure manually on SONiC if needed.

  - feature bgp (line 9) - Configuration not translated; configure manually on SONiC if needed.

  - feature vrrp (line 10) - Configuration not translated; configure manually on SONiC if needed.

  - feature lldp (line 11) - Configuration not translated; configure manually on SONiC if needed.

  - ip domain-lookup (line 15) - Configuration not translated; configure manually on SONiC if needed.


Recommendations:
----------------------------------------------------------------------
Please review the unsupported features listed above and configure them manually
in the SONiC device after applying the generated configuration.

======================================================================