======================================================================
Migration Report
======================================================================
Input file: test_configs/cumulus_nclu_test2.txt
Output file: test_outputs\cumulus_nclu_test2_sonic.txt
Hostname: Campus-Access-Cumulus-01

Statistics:
----------------------------------------------------------------------
VLANs: 3
Physical Interfaces: 8
Port-Channels: 1
Loopback Interfaces: 1
Static Routes: 1
BGP Configured: True
MCLAG Configured: False

======================================================================