======================================================================
Migration Report
======================================================================
Input file: test_configs/cumulus_nclu_test1.txt
Output file: test_outputs\cumulus_nclu_test1_sonic.txt
Hostname: DC-Leaf-Cumulus-01

Statistics:
----------------------------------------------------------------------
VLANs: 4
Physical Interfaces: 12
Port-Channels: 2
Loopback Interfaces: 1
Static Routes: 1
BGP Configured: True
MCLAG Configured: True

======================================================================