======================================================================
Migration Report
======================================================================
Input file: test_configs/juniper_qfx_test3.txt
Output file: test_outputs\juniper_qfx_test3_sonic.txt
Hostname: QFX-Spine-Switch-01

Statistics:
----------------------------------------------------------------------
VLANs: 2
Physical Interfaces: 6
Port-Channels: 1
Loopback Interfaces: 2
Static Routes: 3
BGP Configured: True
MCLAG Configured: False

Unsupported Features:
==================================================

  - system (line 2) - Configuration not translated; configure manually on SONiC if needed.

system
  - host-name QFX-Spine-Switch-01 (line 3) - Configuration not translated; configure manually on SONiC if needed.

system
  - root-authentication (line 4) - Configuration not translated; configure manually on SONiC if needed.

system
  - root-authentication (line 4) - Configuration not translated; configure manually on SONiC if needed.

root-authentication
  - encrypted-password "$6$spine456$abc123"; ## SECRET-DATA (line 5) - Configuration not translated; configure manually on SONiC if needed.

root-authentication
  - encrypted-password "$6$spine456$abc123"; ## SECRET-DATA (line 5) - Configuration not translated; configure manually on SONiC if needed.

system
  - name-server (line 7) - Configuration not translated; configure manually on SONiC if needed.

name-server
  - 8.8.8.8 (line 8) - Configuration not translated; configure manually on SONiC if needed.

name-server
  - 8.8.4.4 (line 9) - Configuration not translated; configure manually on SONiC if needed.

system
  - syslog (line 11) - Configuration not translated; configure manually on SONiC if needed.

system
  - syslog (line 11) - Configuration not translated; configure manually on SONiC if needed.

syslog
  - host 10.2.2.1 (line 12) - Configuration not translated; configure manually on SONiC if needed.

host 10.2.2.1
  - any info (line 13) - Configuration not translated; configure manually on SONiC if needed.

host 10.2.2.1
  - any info (line 13) - Configuration not translated; configure manually on SONiC if needed.

syslog
  - host 10.2.2.2 (line 15) - Configuration not translated; configure manually on SONiC if needed.

host 10.2.2.2
  - any info (line 16) - Configuration not translated; configure manually on SONiC if needed.

host 10.2.2.2
  - any info (line 16) - Configuration not translated; configure manually on SONiC if needed.

system
  - ntp (line 19) - Configuration not translated; configure manually on SONiC if needed.

system
  - ntp (line 19) - Configuration not translated; configure manually on SONiC if needed.

ntp
  - server 10.1.1.1 (line 20) - Configuration not translated; configure manually on SONiC if needed.

ntp
  - server 10.1.1.2 (line 21) - Configuration not translated; configure manually on SONiC if needed.

system
  - radius-server (line 23) - Configuration not translated; configure manually on SONiC if needed.

system
  - radius-server (line 23) - Configuration not translated; configure manually on SONiC if needed.

radius-server
  - 10.3.3.1 (line 24) - Configuration not translated; configure manually on SONiC if needed.

10.3.3.1
  - secret "$9$radiuskey456"; ## SECRET-DATA (line 25) - Configuration not translated; configure manually on SONiC if needed.

10.3.3.1
  - timeout 10 (line 26) - Configuration not translated; configure manually on SONiC if needed.

10.3.3.1
  - retry-count 3 (line 27) - Configuration not translated; configure manually on SONiC if needed.

system
  - authentication-order [ radius password ] (line 30) - Configuration not translated; configure manually on SONiC if needed.

system
  - authentication-order [ radius password ] (line 30) - Configuration not translated; configure manually on SONiC if needed.

  - chassis (line 32) - Configuration not translated; configure manually on SONiC if needed.

chassis
  - aggregated-devices (line 33) - Configuration not translated; configure manually on SONiC if needed.

aggregated-devices
  - ethernet (line 34) - Configuration not translated; configure manually on SONiC if needed.

ethernet
  - device-count 101 (line 35) - Configuration not translated; configure manually on SONiC if needed.

  - interfaces (line 39) - Configuration not translated; configure manually on SONiC if needed.

et-0/0/0
  - unit 0 (line 42) - Configuration not translated; configure manually on SONiC if needed.

unit 0
  - family ethernet-switching (line 43) - Configuration not translated; configure manually on SONiC if needed.

et-0/0/1
  - unit 0 (line 53) - Configuration not translated; configure manually on SONiC if needed.

unit 0
  - family ethernet-switching (line 54) - Configuration not translated; configure manually on SONiC if needed.

et-0/0/2
  - unit 0 (line 64) - Configuration not translated; configure manually on SONiC if needed.

unit 0
  - family ethernet-switching (line 65) - Configuration not translated; configure manually on SONiC if needed.

et-0/0/3
  - unit 0 (line 75) - Configuration not translated; configure manually on SONiC if needed.

unit 0
  - family ethernet-switching (line 76) - Configuration not translated; configure manually on SONiC if needed.

ae100
  - aggregated-ether-options (line 86) - Configuration not translated; configure manually on SONiC if needed.

aggregated-ether-options
  - lacp (line 87) - Configuration not translated; configure manually on SONiC if needed.

lacp
  - active (line 88) - Configuration not translated; configure manually on SONiC if needed.

ae100
  - unit 0 (line 91) - Configuration not translated; configure manually on SONiC if needed.

unit 0
  - family ethernet-switching (line 92) - Configuration not translated; configure manually on SONiC if needed.

et-0/0/4
  - ether-options (line 102) - Configuration not translated; configure manually on SONiC if needed.

et-0/0/5
  - ether-options (line 108) - Configuration not translated; configure manually on SONiC if needed.

lo0
  - unit 0 (line 127) - Configuration not translated; configure manually on SONiC if needed.

unit 0
  - family inet (line 129) - Configuration not translated; configure manually on SONiC if needed.

lo1
  - unit 0 (line 135) - Configuration not translated; configure manually on SONiC if needed.

unit 0
  - family inet (line 137) - Configuration not translated; configure manually on SONiC if needed.

  - vlans (line 143) - Configuration not translated; configure manually on SONiC if needed.

  - protocols (line 153) - Configuration not translated; configure manually on SONiC if needed.

protocols
  - bgp (line 154) - Configuration not translated; configure manually on SONiC if needed.

bgp
  - group spine-peers (line 155) - Configuration not translated; configure manually on SONiC if needed.

group spine-peers
  - type external (line 156) - Configuration not translated; configure manually on SONiC if needed.

group spine-peers
  - local-address 10.0.0.1 (line 157) - Configuration not translated; configure manually on SONiC if needed.

group spine-peers
  - neighbor 10.0.0.10 (line 158) - Configuration not translated; configure manually on SONiC if needed.

neighbor 10.0.0.10
  - peer-as 65001 (line 159) - Configuration not translated; configure manually on SONiC if needed.

bgp
  - group leaf-peers (line 166) - Configuration not translated; configure manually on SONiC if needed.

group leaf-peers
  - type external (line 167) - Configuration not translated; configure manually on SONiC if needed.

group leaf-peers
  - local-address 10.0.0.1 (line 168) - Configuration not translated; configure manually on SONiC if needed.

group leaf-peers
  - neighbor 10.0.0.20 (line 169) - Configuration not translated; configure manually on SONiC if needed.

neighbor 10.0.0.20
  - peer-as 65002 (line 170) - Configuration not translated; configure manually on SONiC if needed.

group leaf-peers
  - neighbor 10.0.0.21 (line 176) - Configuration not translated; configure manually on SONiC if needed.

neighbor 10.0.0.21
  - peer-as 65002 (line 177) - Configuration not translated; configure manually on SONiC if needed.

group leaf-peers
  - neighbor 10.0.0.22 (line 183) - Configuration not translated; configure manually on SONiC if needed.

neighbor 10.0.0.22
  - peer-as 65002 (line 184) - Configuration not translated; configure manually on SONiC if needed.

group leaf-peers
  - neighbor 10.0.0.23 (line 190) - Configuration not translated; configure manually on SONiC if needed.

neighbor 10.0.0.23
  - peer-as 65002 (line 191) - Configuration not translated; configure manually on SONiC if needed.

  - routing-options (line 200) - Configuration not translated; configure manually on SONiC if needed.

routing-options
  - static (line 202) - Configuration not translated; configure manually on SONiC if needed.


Recommendations:
----------------------------------------------------------------------
Please review the unsupported features listed above and configure them manually
in the SONiC device after applying the generated configuration.

======================================================================