======================================================================
Migration Report
======================================================================
Input file: test_configs/cisco_nxos_leaf.cfg
Output file: test_outputs\cisco_nxos_leaf_sonic.txt
Hostname: DC1-LEAF-01

Statistics:
----------------------------------------------------------------------
VLANs: 4
Physical Interfaces: 6
Port-Channels: 1
Loopback Interfaces: 1
Static Routes: 0
BGP Configured: True
MCLAG Configured: False

Unsupported Features:
==================================================

  - feature bgp (line 8) - Configuration not translated; configure manually on SONiC if needed.

  - feature interface-vlan (line 9) - Configuration not translated; configure manually on SONiC if needed.

  - feature lacp (line 10) - Configuration not translated; configure manually on SONiC if needed.

  - feature lldp (line 11) - Configuration not translated; configure manually on SONiC if needed.

  - ip domain-name dc.example.com (line 14) - Configuration not translated; configure manually on SONiC if needed.

  - logging timestamp milliseconds (line 22) - Configuration not translated; configure manually on SONiC if needed.

vlan 100
  - vlan 100 (line 25) - Configuration not translated; configure manually on SONiC if needed.

vlan 200
  - vlan 200 (line 27) - Configuration not translated; configure manually on SONiC if needed.

vlan 999
  - vlan 999 (line 29) - Configuration not translated; configure manually on SONiC if needed.

interface Loopback0
  - interface loopback0 (line 33) - Configuration not translated; configure manually on SONiC if needed.

interface Ethernet1/49
  - interface Ethernet1/49 (line 38) - Configuration not translated; configure manually on SONiC if needed.

interface Ethernet1/50
  - interface Ethernet1/50 (line 45) - Configuration not translated; configure manually on SONiC if needed.

interface Ethernet1/1
  - interface Ethernet1/1 (line 53) - Configuration not translated; configure manually on SONiC if needed.

interface Ethernet1/1
  - switchport (line 55) - Configuration not translated; configure manually on SONiC if needed.

interface Ethernet1/1
  - spanning-tree port type edge (line 58) - Configuration not translated; configure manually on SONiC if needed.

interface Ethernet1/2
  - interface Ethernet1/2 (line 61) - Configuration not translated; configure manually on SONiC if needed.

interface Ethernet1/2
  - switchport (line 63) - Configuration not translated; configure manually on SONiC if needed.

interface Ethernet1/2
  - spanning-tree port type edge (line 66) - Configuration not translated; configure manually on SONiC if needed.

interface port-channel 10
  - interface port-channel10 (line 70) - Configuration not translated; configure manually on SONiC if needed.

interface port-channel 10
  - switchport (line 72) - Configuration not translated; configure manually on SONiC if needed.

interface port-channel 10
  - no shutdown (line 77) - Configuration not translated; configure manually on SONiC if needed.

interface Ethernet1/10
  - interface Ethernet1/10 (line 79) - Configuration not translated; configure manually on SONiC if needed.

interface Ethernet1/10
  - switchport (line 81) - Configuration not translated; configure manually on SONiC if needed.

interface Ethernet1/11
  - interface Ethernet1/11 (line 89) - Configuration not translated; configure manually on SONiC if needed.

interface Ethernet1/11
  - switchport (line 91) - Configuration not translated; configure manually on SONiC if needed.

interface vlan 100
  - interface Vlan100 (line 100) - Configuration not translated; configure manually on SONiC if needed.

interface vlan 100
  - description Compute_Gateway (line 101) - Configuration not translated; configure manually on SONiC if needed.

interface vlan 100
  - no shutdown (line 103) - Configuration not translated; configure manually on SONiC if needed.

interface vlan 200
  - interface Vlan200 (line 105) - Configuration not translated; configure manually on SONiC if needed.

interface vlan 200
  - description Storage_Gateway (line 106) - Configuration not translated; configure manually on SONiC if needed.

interface vlan 200
  - no shutdown (line 108) - Configuration not translated; configure manually on SONiC if needed.

router bgp 65001
  - router bgp 65001 (line 111) - Configuration not translated; configure manually on SONiC if needed.

router bgp 65001
  - bestpath as-path multipath-relax (line 113) - Configuration not translated; configure manually on SONiC if needed.

router bgp 65001
  - maximum-paths 4 (line 116) - Configuration not translated; configure manually on SONiC if needed.

route-map CONNECTED_TO_BGP
  - route-map CONNECTED_TO_BGP permit 10 (line 127) - Configuration not translated; configure manually on SONiC if needed.

route-map CONNECTED_TO_BGP
  - match interface loopback0 Vlan100 Vlan200 (line 128) - Configuration not translated; configure manually on SONiC if needed.

route-map CONNECTED_TO_BGP
  - ip prefix-list SPINE_ROUTES seq 10 permit 10.0.0.0/8 le 32 (line 131) - Configuration not translated; configure manually on SONiC if needed.

route-map CONNECTED_TO_BGP
  - ip access-list MGMT_ACCESS (line 134) - Configuration not translated; configure manually on SONiC if needed.

route-map CONNECTED_TO_BGP
  - 10 permit tcp 10.0.0.0/8 any eq 22 (line 135) - Configuration not translated; configure manually on SONiC if needed.

route-map CONNECTED_TO_BGP
  - 20 permit tcp 10.0.0.0/8 any eq 443 (line 136) - Configuration not translated; configure manually on SONiC if needed.

route-map CONNECTED_TO_BGP
  - 30 deny ip any any log (line 137) - Configuration not translated; configure manually on SONiC if needed.


Recommendations:
----------------------------------------------------------------------
Please review the unsupported features listed above and configure them manually
in the SONiC device after applying the generated configuration.

======================================================================