======================================================================
Migration Report
======================================================================
Input file: test_configs/cisco_nxos_test3.txt
Output file: test_outputs\cisco_nxos_test3_sonic.txt
Hostname: Spine-Switch-01

Statistics:
----------------------------------------------------------------------
VLANs: 3
Physical Interfaces: 6
Port-Channels: 1
Loopback Interfaces: 2
Static Routes: 3
BGP Configured: True
MCLAG Configured: False

Unsupported Features:
==================================================

  - version 9.3(5) (line 4) - Configuration not translated; configure manually on SONiC if needed.

  - feature telnet (line 7) - Configuration not translated; configure manually on SONiC if needed.

  - feature ssh (line 8) - Configuration not translated; configure manually on SONiC if needed.

  - feature bgp (line 9) - Configuration not translated; configure manually on SONiC if needed.

  - feature lldp (line 10) - Configuration not translated; configure manually on SONiC if needed.

  - ip domain-lookup (line 15) - Configuration not translated; configure manually on SONiC if needed.

vlan 1
  - vlan 1 (line 30) - Configuration not translated; configure manually on SONiC if needed.

vlan 1000
  - vlan 1000 (line 33) - Configuration not translated; configure manually on SONiC if needed.

vlan 2000
  - vlan 2000 (line 37) - Configuration not translated; configure manually on SONiC if needed.

interface Ethernet1/1
  - interface Ethernet1/1 (line 41) - Configuration not translated; configure manually on SONiC if needed.

interface Ethernet1/2
  - interface Ethernet1/2 (line 49) - Configuration not translated; configure manually on SONiC if needed.

interface Ethernet1/3
  - interface Ethernet1/3 (line 57) - Configuration not translated; configure manually on SONiC if needed.

interface Ethernet1/4
  - interface Ethernet1/4 (line 65) - Configuration not translated; configure manually on SONiC if needed.

interface port-channel 100
  - interface port-channel100 (line 73) - Configuration not translated; configure manually on SONiC if needed.

interface Ethernet1/5
  - interface Ethernet1/5 (line 79) - Configuration not translated; configure manually on SONiC if needed.

interface Ethernet1/6
  - interface Ethernet1/6 (line 86) - Configuration not translated; configure manually on SONiC if needed.

interface vlan 1000
  - interface vlan 1000 (line 93) - Configuration not translated; configure manually on SONiC if needed.

interface vlan 1000
  - description Infrastructure-VLAN-Interface (line 94) - Configuration not translated; configure manually on SONiC if needed.

interface vlan 1000
  - no shutdown (line 96) - Configuration not translated; configure manually on SONiC if needed.

interface vlan 2000
  - interface vlan 2000 (line 98) - Configuration not translated; configure manually on SONiC if needed.

interface vlan 2000
  - description Services-VLAN-Interface (line 99) - Configuration not translated; configure manually on SONiC if needed.

interface vlan 2000
  - no shutdown (line 101) - Configuration not translated; configure manually on SONiC if needed.

interface Loopback0
  - interface loopback0 (line 103) - Configuration not translated; configure manually on SONiC if needed.

interface Loopback1
  - interface loopback1 (line 107) - Configuration not translated; configure manually on SONiC if needed.

router bgp 65000
  - router bgp 65000 (line 111) - Configuration not translated; configure manually on SONiC if needed.


Recommendations:
----------------------------------------------------------------------
Please review the unsupported features listed above and configure them manually
in the SONiC device after applying the generated configuration.

======================================================================