======================================================================
Migration Report
======================================================================
Input file: test_configs/cisco_nxos_test1.txt
Output file: test_outputs\cisco_nxos_test1_sonic.txt
Hostname: DC-Edge-Switch-01

Statistics:
----------------------------------------------------------------------
VLANs: 5
Physical Interfaces: 14
Port-Channels: 3
Loopback Interfaces: 1
Static Routes: 1
BGP Configured: True
MCLAG Configured: True

Unsupported Features:
==================================================

  - version 9.3(5) (line 4) - Configuration not translated; configure manually on SONiC if needed.

  - feature telnet (line 7) - Configuration not translated; configure manually on SONiC if needed.

  - feature ssh (line 8) - Configuration not translated; configure manually on SONiC if needed.

  - feature bgp (line 9) - Configuration not translated; configure manually on SONiC if needed.

  - feature vpc (line 10) - Configuration not translated; configure manually on SONiC if needed.

  - feature lldp (line 11) - Configuration not translated; configure manually on SONiC if needed.

  - ip domain-lookup (line 17) - Configuration not translated; configure manually on SONiC if needed.

vlan 1
  - vlan 1 (line 32) - Configuration not translated; configure manually on SONiC if needed.

vlan 10
  - vlan 10 (line 35) - Configuration not translated; configure manually on SONiC if needed.

vlan 20
  - vlan 20 (line 39) - Configuration not translated; configure manually on SONiC if needed.

vlan 30
  - vlan 30 (line 43) - Configuration not translated; configure manually on SONiC if needed.

vlan 40
  - vlan 40 (line 47) - Configuration not translated; configure manually on SONiC if needed.

interface Ethernet1/1
  - interface Ethernet1/1 (line 51) - Configuration not translated; configure manually on SONiC if needed.

interface Ethernet1/2
  - interface Ethernet1/2 (line 59) - Configuration not translated; configure manually on SONiC if needed.

interface Ethernet1/3
  - interface Ethernet1/3 (line 67) - Configuration not translated; configure manually on SONiC if needed.

interface Ethernet1/4
  - interface Ethernet1/4 (line 75) - Configuration not translated; configure manually on SONiC if needed.

interface Ethernet1/5
  - interface Ethernet1/5 (line 83) - Configuration not translated; configure manually on SONiC if needed.

interface Ethernet1/6
  - interface Ethernet1/6 (line 91) - Configuration not translated; configure manually on SONiC if needed.

interface Ethernet1/7
  - interface Ethernet1/7 (line 99) - Configuration not translated; configure manually on SONiC if needed.

interface Ethernet1/8
  - interface Ethernet1/8 (line 107) - Configuration not translated; configure manually on SONiC if needed.

interface port-channel 10
  - interface port-channel10 (line 115) - Configuration not translated; configure manually on SONiC if needed.

interface port-channel 20
  - interface port-channel20 (line 122) - Configuration not translated; configure manually on SONiC if needed.

interface port-channel 30
  - interface port-channel30 (line 129) - Configuration not translated; configure manually on SONiC if needed.

interface Ethernet1/9
  - interface Ethernet1/9 (line 135) - Configuration not translated; configure manually on SONiC if needed.

interface Ethernet1/10
  - interface Ethernet1/10 (line 142) - Configuration not translated; configure manually on SONiC if needed.

interface Ethernet1/11
  - interface Ethernet1/11 (line 149) - Configuration not translated; configure manually on SONiC if needed.

interface Ethernet1/12
  - interface Ethernet1/12 (line 156) - Configuration not translated; configure manually on SONiC if needed.

interface Ethernet1/13
  - interface Ethernet1/13 (line 163) - Configuration not translated; configure manually on SONiC if needed.

interface Ethernet1/14
  - interface Ethernet1/14 (line 170) - Configuration not translated; configure manually on SONiC if needed.

interface vlan 10
  - interface vlan 10 (line 177) - Configuration not translated; configure manually on SONiC if needed.

interface vlan 10
  - description Management-VLAN-Interface (line 178) - Configuration not translated; configure manually on SONiC if needed.

interface vlan 10
  - no shutdown (line 180) - Configuration not translated; configure manually on SONiC if needed.

interface vlan 20
  - interface vlan 20 (line 182) - Configuration not translated; configure manually on SONiC if needed.

interface vlan 20
  - description Server-VLAN-Interface (line 183) - Configuration not translated; configure manually on SONiC if needed.

interface vlan 20
  - no shutdown (line 185) - Configuration not translated; configure manually on SONiC if needed.

interface vlan 30
  - interface vlan 30 (line 187) - Configuration not translated; configure manually on SONiC if needed.

interface vlan 30
  - description Storage-VLAN-Interface (line 188) - Configuration not translated; configure manually on SONiC if needed.

interface vlan 30
  - no shutdown (line 191) - Configuration not translated; configure manually on SONiC if needed.

interface vlan 40
  - interface vlan 40 (line 193) - Configuration not translated; configure manually on SONiC if needed.

interface vlan 40
  - description DMZ-VLAN-Interface (line 194) - Configuration not translated; configure manually on SONiC if needed.

interface vlan 40
  - no shutdown (line 196) - Configuration not translated; configure manually on SONiC if needed.

interface Loopback0
  - interface loopback0 (line 198) - Configuration not translated; configure manually on SONiC if needed.

vpc domain 10
  - vpc domain 10 (line 202) - Configuration not translated; configure manually on SONiC if needed.

vpc domain 10
  - role priority 100 (line 204) - Configuration not translated; configure manually on SONiC if needed.

router bgp 65010
  - router bgp 65010 (line 207) - Configuration not translated; configure manually on SONiC if needed.


Recommendations:
----------------------------------------------------------------------
Please review the unsupported features listed above and configure them manually
in the SONiC device after applying the generated configuration.

======================================================================