======================================================================
Migration Report
======================================================================
Input file: test_configs/juniper_qfx_sample.txt
Output file: test_outputs\juniper_qfx_sample_sonic.txt
Hostname: QFX-Switch-01

Statistics:
----------------------------------------------------------------------
VLANs: 4
Physical Interfaces: 11
Port-Channels: 5
Loopback Interfaces: 1
Static Routes: 1
BGP Configured: True
MCLAG Configured: True

Unsupported Features:
==================================================

  - system (line 2) - Configuration not translated; configure manually on SONiC if needed.

system
  - host-name QFX-Switch-01 (line 3) - Configuration not translated; configure manually on SONiC if needed.

system
  - root-authentication (line 4) - Configuration not translated; configure manually on SONiC if needed.

system
  - root-authentication (line 4) - Configuration not translated; configure manually on SONiC if needed.

root-authentication
  - encrypted-password "$6$abc123$def456"; ## SECRET-DATA (line 5) - Configuration not translated; configure manually on SONiC if needed.

root-authentication
  - encrypted-password "$6$abc123$def456"; ## SECRET-DATA (line 5) - Configuration not translated; configure manually on SONiC if needed.

system
  - name-server (line 7) - Configuration not translated; configure manually on SONiC if needed.

name-server
  - 8.8.8.8 (line 8) - Configuration not translated; configure manually on SONiC if needed.

name-server
  - 8.8.4.4 (line 9) - Configuration not translated; configure manually on SONiC if needed.

system
  - syslog (line 11) - Configuration not translated; configure manually on SONiC if needed.

system
  - syslog (line 11) - Configuration not translated; configure manually on SONiC if needed.

syslog
  - host 10.2.2.1 (line 12) - Configuration not translated; configure manually on SONiC if needed.

host 10.2.2.1
  - any info (line 13) - Configuration not translated; configure manually on SONiC if needed.

host 10.2.2.1
  - any info (line 13) - Configuration not translated; configure manually on SONiC if needed.

syslog
  - host 10.2.2.2 (line 15) - Configuration not translated; configure manually on SONiC if needed.

host 10.2.2.2
  - any info (line 16) - Configuration not translated; configure manually on SONiC if needed.

host 10.2.2.2
  - any info (line 16) - Configuration not translated; configure manually on SONiC if needed.

system
  - ntp (line 19) - Configuration not translated; configure manually on SONiC if needed.

system
  - ntp (line 19) - Configuration not translated; configure manually on SONiC if needed.

ntp
  - server 10.1.1.1 (line 20) - Configuration not translated; configure manually on SONiC if needed.

ntp
  - server 10.1.1.2 (line 21) - Configuration not translated; configure manually on SONiC if needed.

system
  - radius-server (line 23) - Configuration not translated; configure manually on SONiC if needed.

system
  - radius-server (line 23) - Configuration not translated; configure manually on SONiC if needed.

radius-server
  - 10.3.3.1 (line 24) - Configuration not translated; configure manually on SONiC if needed.

10.3.3.1
  - secret "$9$radiuskey123"; ## SECRET-DATA (line 25) - Configuration not translated; configure manually on SONiC if needed.

10.3.3.1
  - timeout 10 (line 26) - Configuration not translated; configure manually on SONiC if needed.

10.3.3.1
  - retry-count 3 (line 27) - Configuration not translated; configure manually on SONiC if needed.

system
  - authentication-order [ radius password ] (line 30) - Configuration not translated; configure manually on SONiC if needed.

system
  - authentication-order [ radius password ] (line 30) - Configuration not translated; configure manually on SONiC if needed.

  - chassis (line 32) - Configuration not translated; configure manually on SONiC if needed.

chassis
  - aggregated-devices (line 33) - Configuration not translated; configure manually on SONiC if needed.

aggregated-devices
  - ethernet (line 34) - Configuration not translated; configure manually on SONiC if needed.

ethernet
  - device-count 33 (line 35) - Configuration not translated; configure manually on SONiC if needed.

  - interfaces (line 39) - Configuration not translated; configure manually on SONiC if needed.

xe-0/0/0
  - unit 0 (line 42) - Configuration not translated; configure manually on SONiC if needed.

unit 0
  - family ethernet-switching (line 43) - Configuration not translated; configure manually on SONiC if needed.

xe-0/0/1
  - unit 0 (line 53) - Configuration not translated; configure manually on SONiC if needed.

unit 0
  - family ethernet-switching (line 54) - Configuration not translated; configure manually on SONiC if needed.

xe-0/0/2
  - unit 0 (line 64) - Configuration not translated; configure manually on SONiC if needed.

unit 0
  - family ethernet-switching (line 65) - Configuration not translated; configure manually on SONiC if needed.

xe-0/0/3
  - ether-options (line 75) - Configuration not translated; configure manually on SONiC if needed.

xe-0/0/4
  - ether-options (line 81) - Configuration not translated; configure manually on SONiC if needed.

xe-0/0/5
  - unit 0 (line 90) - Configuration not translated; configure manually on SONiC if needed.

unit 0
  - family ethernet-switching (line 91) - Configuration not translated; configure manually on SONiC if needed.

xe-0/0/6
  - unit 0 (line 101) - Configuration not translated; configure manually on SONiC if needed.

unit 0
  - family ethernet-switching (line 102) - Configuration not translated; configure manually on SONiC if needed.

xe-0/0/7
  - unit 0 (line 112) - Configuration not translated; configure manually on SONiC if needed.

unit 0
  - family ethernet-switching (line 113) - Configuration not translated; configure manually on SONiC if needed.

xe-0/0/8
  - unit 0 (line 123) - Configuration not translated; configure manually on SONiC if needed.

unit 0
  - family ethernet-switching (line 124) - Configuration not translated; configure manually on SONiC if needed.

xe-0/0/9
  - unit 0 (line 134) - Configuration not translated; configure manually on SONiC if needed.

unit 0
  - family ethernet-switching (line 135) - Configuration not translated; configure manually on SONiC if needed.

xe-0/0/10
  - unit 0 (line 145) - Configuration not translated; configure manually on SONiC if needed.

unit 0
  - family ethernet-switching (line 146) - Configuration not translated; configure manually on SONiC if needed.

ae10
  - aggregated-ether-options (line 156) - Configuration not translated; configure manually on SONiC if needed.

aggregated-ether-options
  - lacp (line 157) - Configuration not translated; configure manually on SONiC if needed.

lacp
  - active (line 158) - Configuration not translated; configure manually on SONiC if needed.

ae10
  - unit 0 (line 161) - Configuration not translated; configure manually on SONiC if needed.

unit 0
  - family ethernet-switching (line 162) - Configuration not translated; configure manually on SONiC if needed.

ae20
  - aggregated-ether-options (line 172) - Configuration not translated; configure manually on SONiC if needed.

aggregated-ether-options
  - lacp (line 173) - Configuration not translated; configure manually on SONiC if needed.

lacp
  - active (line 174) - Configuration not translated; configure manually on SONiC if needed.

ae20
  - unit 0 (line 177) - Configuration not translated; configure manually on SONiC if needed.

unit 0
  - family ethernet-switching (line 178) - Configuration not translated; configure manually on SONiC if needed.

ae30
  - aggregated-ether-options (line 190) - Configuration not translated; configure manually on SONiC if needed.

aggregated-ether-options
  - lacp (line 191) - Configuration not translated; configure manually on SONiC if needed.

lacp
  - active (line 192) - Configuration not translated; configure manually on SONiC if needed.

ae30
  - unit 0 (line 195) - Configuration not translated; configure manually on SONiC if needed.

unit 0
  - family ethernet-switching (line 196) - Configuration not translated; configure manually on SONiC if needed.

ae31
  - aggregated-ether-options (line 206) - Configuration not translated; configure manually on SONiC if needed.

aggregated-ether-options
  - lacp (line 207) - Configuration not translated; configure manually on SONiC if needed.

lacp
  - active (line 208) - Configuration not translated; configure manually on SONiC if needed.

ae31
  - unit 0 (line 211) - Configuration not translated; configure manually on SONiC if needed.

unit 0
  - family ethernet-switching (line 212) - Configuration not translated; configure manually on SONiC if needed.

ae32
  - aggregated-ether-options (line 222) - Configuration not translated; configure manually on SONiC if needed.

aggregated-ether-options
  - lacp (line 223) - Configuration not translated; configure manually on SONiC if needed.

lacp
  - active (line 224) - Configuration not translated; configure manually on SONiC if needed.

ae32
  - unit 0 (line 227) - Configuration not translated; configure manually on SONiC if needed.

unit 0
  - family ethernet-switching (line 228) - Configuration not translated; configure manually on SONiC if needed.

lo0
  - unit 0 (line 251) - Configuration not translated; configure manually on SONiC if needed.

unit 0
  - family inet (line 253) - Configuration not translated; configure manually on SONiC if needed.

  - vlans (line 259) - Configuration not translated; configure manually on SONiC if needed.

  - protocols (line 275) - Configuration not translated; configure manually on SONiC if needed.

protocols
  - bgp (line 276) - Configuration not translated; configure manually on SONiC if needed.

bgp
  - group external-peers (line 277) - Configuration not translated; configure manually on SONiC if needed.

group external-peers
  - type external (line 278) - Configuration not translated; configure manually on SONiC if needed.

group external-peers
  - local-address 10.0.0.1 (line 279) - Configuration not translated; configure manually on SONiC if needed.

group external-peers
  - neighbor 10.10.10.1 (line 280) - Configuration not translated; configure manually on SONiC if needed.

neighbor 10.10.10.1
  - peer-as 65002 (line 282) - Configuration not translated; configure manually on SONiC if needed.

group external-peers
  - neighbor 10.10.10.2 (line 284) - Configuration not translated; configure manually on SONiC if needed.

neighbor 10.10.10.2
  - peer-as 65002 (line 286) - Configuration not translated; configure manually on SONiC if needed.

group external-peers
  - neighbor 10.10.10.3 (line 288) - Configuration not translated; configure manually on SONiC if needed.

neighbor 10.10.10.3
  - peer-as 65003 (line 290) - Configuration not translated; configure manually on SONiC if needed.

protocols
  - vrrp (line 299) - Configuration not translated; configure manually on SONiC if needed.

vrrp
  - group vrrp-group-1 (line 300) - Configuration not translated; configure manually on SONiC if needed.

protocols
  - mc-lag (line 307) - Configuration not translated; configure manually on SONiC if needed.

mc-lag
  - icp (line 308) - Configuration not translated; configure manually on SONiC if needed.

mc-lag
  - interface ae10 (line 313) - Configuration not translated; configure manually on SONiC if needed.

interface ae10
  - mc-ae-id 10 (line 314) - Configuration not translated; configure manually on SONiC if needed.

interface ae10
  - redundancy-group 1 (line 315) - Configuration not translated; configure manually on SONiC if needed.

  - policy-options (line 319) - Configuration not translated; configure manually on SONiC if needed.

  - routing-options (line 331) - Configuration not translated; configure manually on SONiC if needed.

routing-options
  - static (line 333) - Configuration not translated; configure manually on SONiC if needed.

  - snmp (line 338) - Configuration not translated; configure manually on SONiC if needed.


Recommendations:
----------------------------------------------------------------------
Please review the unsupported features listed above and configure them manually
in the SONiC device after applying the generated configuration.

======================================================================